*Heading
** Job name: Job-1 Model name: Model-1
** Generated by: Abaqus/CAE Learning Edition 2023
*Preprint, echo=NO, model=NO, history=NO, contact=NO
**
** PARTS
**
*Part, name=Part-1
*Node
      1,         -74.,          8.5,          10.
      2,         -74.,          7.5,          10.
      3,         -74.,          7.5,           0.
      4,         -74.,          8.5,           1.
      5,         -74.,          8.5,           0.
      6,         -75.,          7.5,          10.
      7,         -75.,          7.5,           0.
      8,         -75.,          8.5,           0.
      9,         -75.,          8.5,           1.
     10,         -75.,          8.5,          10.
     11,         -74.,          7.5,           9.
     12,         -74.,          7.5,           8.
     13,         -74.,          7.5,           7.
     14,         -74.,          7.5,           6.
     15,         -74.,          7.5,           5.
     16,         -74.,          7.5,           4.
     17,         -74.,          7.5,           3.
     18,         -74.,          7.5,           2.
     19,         -74.,          7.5,           1.
     20,         -74.,          8.5,           2.
** ... 30 like lines cut
*Element, type=C3D4
  1, 45, 46, 28, 11
  2, 45, 28, 43, 29
  3, 47, 26, 25, 43
  4, 41, 14, 48, 24
  5, 47, 43, 45, 26
  6, 47, 29, 45, 43
  7, 47, 29, 42, 30
  8, 47, 45, 29, 12
  9, 47, 31, 30, 41
 10, 24, 47, 41, 14
 11, 16, 22, 48, 23
 12, 33, 15, 48, 32
 13, 23, 41, 48, 24
 14, 31, 14, 48, 41
 15, 23, 22, 48, 40
 16, 48, 39, 32, 40
 17, 32, 48, 14, 15
 18, 16, 48, 34, 33
 19, 48, 39, 22, 21
 20, 46,  6, 10, 44
** ... 84 like lines cut
*Nset, nset=Set-1, generate
  1,  50,   1
*Elset, elset=Set-1, generate
   1,  104,    1
** Section: Section-1
*Solid Section, elset=Set-1, material="AISI 4340 Steel"
,
*End Part
**  
**
** ASSEMBLY
**
*Assembly, name=Assembly
**  
*Instance, name=Part-1-1, part=Part-1
*End Instance
**  
*Nset, nset=Set-1, instance=Part-1-1
  1,  2,  6, 10
*Elset, elset=Set-1, instance=Part-1-1
 21, 80
*Elset, elset=_Surf-2_S1, internal, instance=Part-1-1
  99, 101
*Surface, type=ELEMENT, name=Surf-2
_Surf-2_S1, S1
*End Assembly
** 
** MATERIALS
** 
*Material, name="AISI 4340 Steel"
*Elastic
 2.1e+11, 0.3
** ----------------------------------------------------------------
** 
** STEP: Step-1
** 
*Step, name=Step-1, nlgeom=NO
*Static
1., 1., 1e-05, 1.
** 
** BOUNDARY CONDITIONS
** 
** Name: BC-1 Type: Symmetry/Antisymmetry/Encastre
*Boundary
Set-1, ENCASTRE
** 
** LOADS
** 
** Name: Load-1   Type: Pressure
*Dsload
Surf-2, P, 1e+06
** 
** OUTPUT REQUESTS
** 
*Restart, write, frequency=0
** 
** FIELD OUTPUT: F-Output-1
** 
*Output, field
*Node Output
U, 
** 
** HISTORY OUTPUT: H-Output-1
** 
*Output, history, variable=PRESELECT
*End Step
