*Heading
** Job name: Job-1 Model name: Model-1
** Generated by: Abaqus/CAE Learning Edition 2023
*Preprint, echo=NO, model=NO, history=NO, contact=NO
**
** PARTS
**
*Part, name=Part-1
*Node
      1,         -75.,          7.5,          10.
      2,         -75.,          8.5,          10.
      3,         -75.,          8.5,           0.
      4,         -75.,          7.5,           0.
      5,         -74.,          8.5,          10.
      6,         -74.,          8.5,           0.
      7,         -74.,          7.5,           0.
      8,         -74.,          7.5,          10.
      9,         -75.,          8.5,           9.
     10,         -75.,          8.5,           8.
     11,         -75.,          8.5,           7.
     12,         -75.,          8.5,           6.
     13,         -75.,          8.5,           5.
     14,         -75.,          8.5,           4.
     15,         -75.,          8.5,           3.
     16,         -75.,          8.5,           2.
     17,         -75.,          8.5,           1.
     18,         -75.,          7.5,           1.
     19,         -75.,          7.5,           2.
     20,         -75.,          7.5,           3.
** ... 31 like lines cut
*Element, type=C3D4
  1, 45, 33, 15, 14
  2, 45, 20, 46, 38
  3, 47, 32, 45, 14
  4, 48, 31, 30, 40
  5, 48, 31, 12, 30
  6, 47, 48, 13, 22
  7, 48, 12, 31, 13
  8, 17, 18, 36, 46
  9, 18, 36, 46, 37
 10, 29, 49, 28, 10
 11, 47, 48, 22, 40
 12, 47, 48, 31, 13
 13, 47, 21, 45, 39
 14, 19, 18, 46, 37
 15, 34, 46, 37, 33
 16, 45, 46, 15, 33
 17, 38, 20, 46, 19
 18, 33, 46, 37, 38
 19, 15, 34, 46, 16
 20, 19, 37, 46, 38
** ... 88 like lines cut
*Nset, nset=Set-1, generate
  1,  51,   1
*Elset, elset=Set-1, generate
   1,  108,    1
** Section: Section-1
*Solid Section, elset=Set-1, material="AISI 4340 Steel"
,
*End Part
**  
**
** ASSEMBLY
**
*Assembly, name=Assembly
**  
*Instance, name=Part-1-1, part=Part-1
*End Instance
**  
*Nset, nset=Set-1, instance=Part-1-1
 1, 2, 5, 8
*Elset, elset=Set-1, instance=Part-1-1
 104, 107
*Elset, elset=_Surf-1_S3, internal, instance=Part-1-1
  1,  5,  7, 36, 46, 61
*Elset, elset=_Surf-1_S4, internal, instance=Part-1-1
 10, 26, 27, 56, 85, 88, 95
*Elset, elset=_Surf-1_S2, internal, instance=Part-1-1
  19,  44,  54,  55, 100
*Elset, elset=_Surf-1_S1, internal, instance=Part-1-1
 83, 98
*Surface, type=ELEMENT, name=Surf-1
_Surf-1_S3, S3
_Surf-1_S4, S4
_Surf-1_S2, S2
_Surf-1_S1, S1
*End Assembly
** 
** MATERIALS
** 
*Material, name="AISI 4340 Steel"
*Elastic
 2.1e+11, 0.3
** ----------------------------------------------------------------
** 
** STEP: Step-1
** 
*Step, name=Step-1, nlgeom=NO
*Static
1., 1., 1e-05, 1.
** 
** BOUNDARY CONDITIONS
** 
** Name: BC-1 Type: Symmetry/Antisymmetry/Encastre
*Boundary
Set-1, ENCASTRE
** 
** LOADS
** 
** Name: Load-1   Type: Pressure
*Dsload
Surf-1, P, 1000.
** 
** OUTPUT REQUESTS
** 
*Restart, write, frequency=0
** 
** FIELD OUTPUT: F-Output-1
** 
*Output, field, variable=PRESELECT
** 
** HISTORY OUTPUT: H-Output-1
** 
*Output, history, variable=PRESELECT
*End Step
