*HEADING
Created by GiD on 09-Oct-23 at 22:13:05
*NODE
 1, -32.1973, -2.82194, 10
 2, -32.1973, -3.52269, 9.34
 3, -31.4838, -2.82194, 9.34
 4, -32.1973, -2.82194, 9
 5, -30.7831, -2.82194, 10
 6, -32.1973, -4.23616, 10
 7, -32.1973, -3.49727, 8.7
 8, -31.4584, -2.82194, 8.7
 9, -31.4966, -4.23616, 9.34
 10, -30.7831, -3.53541, 9.34
 11, -30.7831, -2.82194, 9
 12, -32.1973, -4.23616, 9
 13, -31.3979, -3.81056, 8.69163
 14, -30.7831, -4.23616, 10
 15, -32.1973, -2.82194, 8
 16, -31.522, -4.23616, 8.7
 17, -30.7831, -3.56083, 8.7
 18, -31.4564, -3.47784, 8.03431
 19, -30.7831, -4.23616, 9
 20, -30.7831, -2.82194, 8
** ... 71 like lines cut
*ELEMENT, TYPE=
1,   46,   42,   50,   41
*ELEMENT, TYPE=
2,   28,   33,   26,   30
*ELEMENT, TYPE=
3,   7,   4,   2,   3
*ELEMENT, TYPE=
4,   17,   19,   10,   9
*ELEMENT, TYPE=
5,   29,   31,   23,   34
*ELEMENT, TYPE=
6,   45,   40,   47,   43
*ELEMENT, TYPE=
7,   44,   41,   49,   47
*ELEMENT, TYPE=
8,   32,   34,   27,   33
*ELEMENT, TYPE=
9,   48,   43,   51,   42
*ELEMENT, TYPE=
10,   25,   30,   22,   31
*ELEMENT, TYPE=
11,   16,   12,   9,   2
*ELEMENT, TYPE=
12,   26,   33,   32,   27
*ELEMENT, TYPE=
13,   7,   2,   12,   16
*ELEMENT, TYPE=
14,   50,   42,   48,   51
*ELEMENT, TYPE=
15,   47,   40,   44,   41
*ELEMENT, TYPE=
16,   17,   10,   11,   8
*ELEMENT, TYPE=
17,   23,   31,   25,   22
*ELEMENT, TYPE=
18,   27,   34,   29,   23
*ELEMENT, TYPE=
19,   49,   41,   46,   50
*ELEMENT, TYPE=
20,   51,   43,   45,   47
*ELEMENT, TYPE=
21,   22,   30,   28,   26
*ELEMENT, TYPE=
22,   16,   9,   19,   17
*ELEMENT, TYPE=
23,   66,   57,   61,   58
*ELEMENT, TYPE=
24,   69,   60,   65,   59
*ELEMENT, TYPE=
25,   68,   59,   62,   57
*ELEMENT, TYPE=
26,   67,   58,   63,   60
*ELEMENT, TYPE=
27,   81,   76,   85,   87
*ELEMENT, TYPE=
28,   83,   78,   87,   86
*ELEMENT, TYPE=
29,   79,   75,   84,   85
*ELEMENT, TYPE=
30,   82,   77,   86,   84
*ELEMENT, TYPE=
31,   66,   61,   70,   67
*ELEMENT, TYPE=
32,   69,   65,   74,   68
*ELEMENT, TYPE=
33,   68,   62,   72,   66
*ELEMENT, TYPE=
34,   67,   63,   73,   69
*ELEMENT, TYPE=
35,   82,   73,   77,   75
*ELEMENT, TYPE=
36,   83,   74,   78,   77
*ELEMENT, TYPE=
37,   79,   70,   75,   76
*ELEMENT, TYPE=
38,   81,   72,   76,   78
*ELEMENT, TYPE=
39,   46,   49,   50,   55
*ELEMENT, TYPE=
40,   40,   44,   41,   35
*ELEMENT, TYPE=
41,   28,   22,   26,   20
*ELEMENT, TYPE=
42,   32,   26,   27,   24
*ELEMENT, TYPE=
43,   84,   79,   85,   88
*ELEMENT, TYPE=
44,   25,   23,   22,   15
*ELEMENT, TYPE=
45,   59,   62,   57,   54
*ELEMENT, TYPE=
46,   85,   81,   87,   90
*ELEMENT, TYPE=
47,   57,   61,   58,   52
*ELEMENT, TYPE=
48,   4,   8,   7,   15
*ELEMENT, TYPE=
49,   48,   50,   51,   56
*ELEMENT, TYPE=
50,   19,   16,   17,   24
*ELEMENT, TYPE=
51,   12,   7,   16,   21
*ELEMENT, TYPE=
52,   86,   82,   84,   89
*ELEMENT, TYPE=
53,   29,   27,   23,   21
*ELEMENT, TYPE=
54,   58,   63,   60,   55
*ELEMENT, TYPE=
55,   87,   83,   86,   91
*ELEMENT, TYPE=
56,   60,   65,   59,   56
*ELEMENT, TYPE=
57,   11,   17,   8,   20
*ELEMENT, TYPE=
58,   45,   51,   47,   54
*ELEMENT, TYPE=
59,   45,   40,   43,   37
*ELEMENT, TYPE=
60,   25,   30,   31,   35
*ELEMENT, TYPE=
61,   28,   33,   30,   37
*ELEMENT, TYPE=
62,   19,   10,   9,   14
*ELEMENT, TYPE=
63,   32,   34,   33,   39
*ELEMENT, TYPE=
64,   11,   3,   10,   5
*ELEMENT, TYPE=
65,   12,   9,   2,   6
*ELEMENT, TYPE=
66,   4,   2,   3,   1
*ELEMENT, TYPE=
67,   48,   43,   42,   39
*ELEMENT, TYPE=
68,   29,   31,   34,   38
*ELEMENT, TYPE=
69,   49,   44,   47,   52
*ELEMENT, TYPE=
70,   46,   42,   41,   38
*ELEMENT, TYPE=
71,   86,   77,   83,   78
*ELEMENT, TYPE=
72,   87,   78,   81,   76
*ELEMENT, TYPE=
73,   84,   75,   82,   77
*ELEMENT, TYPE=
74,   85,   76,   79,   75
*ELEMENT, TYPE=
75,   58,   67,   61,   66
*ELEMENT, TYPE=
76,   59,   68,   65,   69
*ELEMENT, TYPE=
77,   60,   69,   63,   67
*ELEMENT, TYPE=
78,   57,   66,   62,   68
*ELEMENT, TYPE=
79,   73,   77,   75,   67
*ELEMENT, TYPE=
80,   73,   77,   67,   69
*ELEMENT, TYPE=
81,   70,   75,   76,   66
*ELEMENT, TYPE=
82,   70,   75,   66,   67
*ELEMENT, TYPE=
83,   72,   76,   78,   68
*ELEMENT, TYPE=
84,   72,   76,   68,   66
*ELEMENT, TYPE=
85,   74,   78,   77,   69
*ELEMENT, TYPE=
86,   74,   78,   69,   68
*ELEMENT, TYPE=
87,   47,   40,   41,   43
*ELEMENT, TYPE=
88,   49,   41,   50,   47
*ELEMENT, TYPE=
89,   30,   22,   31,   26
*ELEMENT, TYPE=
90,   33,   26,   30,   31
*ELEMENT, TYPE=
91,   34,   27,   33,   31
*ELEMENT, TYPE=
92,   43,   51,   42,   47
*ELEMENT, TYPE=
93,   31,   23,   34,   27
*ELEMENT, TYPE=
94,   23,   31,   22,   27
*ELEMENT, TYPE=
95,   26,   33,   27,   31
*ELEMENT, TYPE=
96,   50,   42,   51,   47
*ELEMENT, TYPE=
97,   42,   50,   41,   47
*ELEMENT, TYPE=
98,   49,   50,   55,   53
*ELEMENT, TYPE=
99,   55,   49,   53,   52
*ELEMENT, TYPE=
100,   50,   55,   53,   56
*ELEMENT, TYPE=
101,   49,   50,   53,   47
*ELEMENT, TYPE=
102,   49,   53,   52,   47
*ELEMENT, TYPE=
103,   41,   40,   35,   36
*ELEMENT, TYPE=
104,   40,   35,   36,   37
*ELEMENT, TYPE=
105,   35,   41,   36,   38
*ELEMENT, TYPE=
106,   41,   40,   36,   43
*ELEMENT, TYPE=
107,   36,   40,   37,   43
*ELEMENT, TYPE=
108,   53,   50,   56,   51
*ELEMENT, TYPE=
109,   41,   36,   38,   42
*ELEMENT, TYPE=
110,   36,   38,   42,   39
*ELEMENT, TYPE=
111,   34,   33,   39,   36
*ELEMENT, TYPE=
112,   43,   42,   39,   36
*ELEMENT, TYPE=
113,   41,   36,   42,   43
*ELEMENT, TYPE=
114,   33,   30,   37,   36
*ELEMENT, TYPE=
115,   30,   31,   35,   36
*ELEMENT, TYPE=
116,   31,   35,   36,   38
*ELEMENT, TYPE=
117,   35,   30,   36,   37
*ELEMENT, TYPE=
118,   36,   31,   38,   34
*ELEMENT, TYPE=
119,   30,   31,   36,   33
*ELEMENT, TYPE=
120,   2,   3,   1,   5
*ELEMENT, TYPE=
121,   36,   31,   34,   33
*ELEMENT, TYPE=
122,   53,   50,   51,   47
*ELEMENT, TYPE=
123,   38,   36,   34,   39
*ELEMENT, TYPE=
124,   56,   53,   51,   54
*ELEMENT, TYPE=
125,   17,   8,   20,   18
*ELEMENT, TYPE=
126,   8,   20,   18,   15
*ELEMENT, TYPE=
127,   17,   8,   18,   7
*ELEMENT, TYPE=
128,   20,   17,   18,   24
*ELEMENT, TYPE=
129,   8,   18,   7,   15
*ELEMENT, TYPE=
130,   17,   18,   24,   7
*ELEMENT, TYPE=
131,   18,   7,   15,   21
*ELEMENT, TYPE=
132,   22,   26,   20,   18
*ELEMENT, TYPE=
133,   26,   20,   18,   24
*ELEMENT, TYPE=
134,   20,   22,   18,   15
*ELEMENT, TYPE=
135,   22,   18,   15,   23
*ELEMENT, TYPE=
136,   22,   26,   18,   27
*ELEMENT, TYPE=
137,   27,   23,   21,   18
*ELEMENT, TYPE=
138,   57,   59,   54,   53
*ELEMENT, TYPE=
139,   86,   87,   91,   90
*ELEMENT, TYPE=
140,   7,   16,   21,   24
*ELEMENT, TYPE=
141,   58,   57,   52,   53
*ELEMENT, TYPE=
142,   85,   84,   88,   89
*ELEMENT, TYPE=
143,   51,   47,   54,   53
*ELEMENT, TYPE=
144,   26,   27,   24,   18
*ELEMENT, TYPE=
145,   87,   85,   90,   86
*ELEMENT, TYPE=
146,   60,   58,   55,   53
*ELEMENT, TYPE=
147,   58,   55,   53,   52
*ELEMENT, TYPE=
148,   55,   60,   53,   56
*ELEMENT, TYPE=
149,   60,   53,   56,   59
*ELEMENT, TYPE=
150,   60,   58,   53,   59
*ELEMENT, TYPE=
151,   84,   86,   89,   85
*ELEMENT, TYPE=
152,   37,   36,   43,   39
*ELEMENT, TYPE=
153,   37,   33,   36,   39
*ELEMENT, TYPE=
154,   53,   56,   59,   54
*ELEMENT, TYPE=
155,   66,   57,   58,   64
*ELEMENT, TYPE=
156,   66,   57,   64,   68
*ELEMENT, TYPE=
157,   64,   66,   68,   69
*ELEMENT, TYPE=
158,   68,   64,   69,   59
*ELEMENT, TYPE=
159,   68,   64,   59,   57
*ELEMENT, TYPE=
160,   64,   59,   57,   58
*ELEMENT, TYPE=
161,   64,   69,   59,   60
*ELEMENT, TYPE=
162,   59,   64,   60,   58
*ELEMENT, TYPE=
163,   64,   69,   60,   67
*ELEMENT, TYPE=
164,   64,   60,   58,   67
*ELEMENT, TYPE=
165,   58,   64,   67,   66
*ELEMENT, TYPE=
166,   64,   69,   67,   66
*ELEMENT, TYPE=
167,   76,   85,   87,   75
*ELEMENT, TYPE=
168,   75,   84,   85,   80
*ELEMENT, TYPE=
169,   75,   84,   80,   86
*ELEMENT, TYPE=
170,   84,   80,   86,   85
*ELEMENT, TYPE=
171,   80,   75,   86,   77
*ELEMENT, TYPE=
172,   86,   80,   77,   78
*ELEMENT, TYPE=
173,   80,   75,   77,   78
*ELEMENT, TYPE=
174,   86,   80,   78,   87
*ELEMENT, TYPE=
175,   86,   80,   87,   85
*ELEMENT, TYPE=
176,   80,   78,   87,   75
*ELEMENT, TYPE=
177,   80,   87,   85,   75
*ELEMENT, TYPE=
178,   77,   86,   84,   75
*ELEMENT, TYPE=
179,   22,   18,   23,   27
*ELEMENT, TYPE=
180,   27,   24,   18,   21
*ELEMENT, TYPE=
181,   58,   57,   53,   59
*ELEMENT, TYPE=
182,   87,   78,   76,   75
*ELEMENT, TYPE=
183,   18,   15,   23,   21
*ELEMENT, TYPE=
184,   57,   52,   53,   54
*ELEMENT, TYPE=
185,   18,   7,   21,   24
*ELEMENT, TYPE=
186,   47,   54,   53,   52
*ELEMENT, TYPE=
187,   77,   75,   67,   71
*ELEMENT, TYPE=
188,   77,   75,   71,   78
*ELEMENT, TYPE=
189,   71,   77,   78,   69
*ELEMENT, TYPE=
190,   75,   67,   71,   66
*ELEMENT, TYPE=
191,   67,   71,   66,   69
*ELEMENT, TYPE=
192,   71,   75,   66,   76
*ELEMENT, TYPE=
193,   66,   71,   76,   68
*ELEMENT, TYPE=
194,   66,   71,   68,   69
*ELEMENT, TYPE=
195,   71,   75,   76,   78
*ELEMENT, TYPE=
196,   76,   71,   78,   68
*ELEMENT, TYPE=
197,   71,   78,   68,   69
*ELEMENT, TYPE=
198,   67,   71,   69,   77
*ELEMENT, TYPE=
199,   91,   89,   86,   90
*ELEMENT, TYPE=
200,   88,   90,   85,   89
*ELEMENT, TYPE=
201,   10,   9,   2,   13
*ELEMENT, TYPE=
202,   9,   2,   13,   16
*ELEMENT, TYPE=
203,   13,   9,   16,   17
*ELEMENT, TYPE=
204,   16,   13,   17,   24
*ELEMENT, TYPE=
205,   2,   13,   16,   7
*ELEMENT, TYPE=
206,   13,   16,   7,   24
*ELEMENT, TYPE=
207,   2,   13,   7,   10
*ELEMENT, TYPE=
208,   13,   9,   17,   10
*ELEMENT, TYPE=
209,   17,   13,   10,   7
*ELEMENT, TYPE=
210,   13,   17,   24,   7
*ELEMENT, TYPE=
211,   22,   26,   27,   31
*ELEMENT, TYPE=
212,   42,   41,   43,   47
*ELEMENT, TYPE=
213,   8,   4,   7,   3
*ELEMENT, TYPE=
214,   3,   11,   10,   8
*ELEMENT, TYPE=
215,   5,   10,   14,   9
*ELEMENT, TYPE=
216,   9,   6,   14,   5
*ELEMENT, TYPE=
217,   1,   6,   2,   5
*ELEMENT, TYPE=
218,   9,   10,   2,   5
*ELEMENT, TYPE=
219,   17,   8,   7,   10
*ELEMENT, TYPE=
220,   7,   2,   10,   3
*ELEMENT, TYPE=
221,   2,   10,   3,   5
*ELEMENT, TYPE=
222,   10,   7,   3,   8
*ELEMENT, TYPE=
223,   9,   2,   6,   5
*ELEMENT, TYPE=
224,   85,   90,   86,   89
*NSET, NSET=Nset2
 1, 2, 3, 4, 5, 6, 7, 8, 9, 10, 11, 12, 13, 14, 15, 16,
 17, 18, 19, 20, 21, 22, 23, 24, 25, 26, 27, 28, 29, 30, 31, 32,
 33, 34, 35, 36, 37, 38, 39, 40, 41, 42, 43, 44, 45, 46, 47, 48,
 49, 50, 51, 52, 53, 54, 55, 56, 57, 58, 59, 60, 61, 62, 63, 64,
 65, 66, 67, 68, 69, 70, 71, 72, 73, 74, 75, 76, 77, 78, 79, 80,
 81, 82, 83, 84, 85, 86, 87, 88, 89, 90, 91
*NSET, NSET=parte 1
 1, 2, 3, 4, 5, 6, 7, 8, 9, 10, 11, 12, 13, 14, 15, 16,
 17, 18, 19, 20, 21, 22, 23, 24, 25, 26, 27, 28, 29, 30, 31, 32,
 33, 34, 35, 36, 37, 38, 39, 40, 41, 42, 43, 44, 45, 46, 47, 48,
 49, 50, 51, 52, 53, 54, 55, 56, 57, 58, 59, 60, 61, 62, 63, 64,
 65, 66, 67, 68, 69, 70, 71, 72, 73, 74, 75, 76, 77, 78, 79, 80,
 81, 82, 83, 84, 85, 86, 87, 88, 89, 90, 91
*MATERIAL,NAME=AISI_4340_Steel
*ELASTIC
21E+9,0.3
*DENSITY
0.785
*ELSET,ELSET=AISI_4340_Steel_Set
1,
2,
3,
4,
5,
6,
7,
8,
9,
10,
11,
12,
13,
14,
15,
16,
17,
18,
19,
20,
** ... 204 like lines cut
*ORIENTATION,NAME=Axes_system_1
     0.727,    -0.6867,  1.225e-16, -4.698e-17,  1.286e-16,          1
